LAMMPS (31 Mar 2017)

units lj
boundary p p p
atom_style bond

read_data lammps_input.txt
  orthogonal box = (-8 -8 -8) to (8 8 8)
  reading atoms ...
  16 atoms
  scanning bonds ...
  reading bonds ...
  8 bonds

mass * 1.0

pair_style lj/cut 2.5
pair_coeff * * 1.0 1.0 2.5
bond_style fene
bond_coeff 1 30.0 1.5 1.0 1.0

#fix 1 all nvt temp 1.0 1.0 0.5
fix 2 all npt iso 0.5 0.5 1 temp 1.0 1.0 0.5
neigh_modify every 1 delay 0
timestep 0.005

group chain type 2
9 atoms in group chain
group solvents type 1
7 atoms in group solvents
dump 1 chain custom 10000 A.lammpstrj id mol type x y z
dump 2 solvents custom 10000 B.lammpstrj id mol type x y z
thermo 1000
run 1000000
  update every 1 steps, delay 0 steps, check yes
Step Temp E_pair E_mol TotEng Press Volume
0            0 -0.034606934      10.4189    10.384293 -0.0041723251         4096
Averages over the last 501 of 1001 rows, steps 500000 to 1000000:
Temp E_pair E_mol TotEng Press Volume
0.991559 7.58289 15.8519 24.8292 0.500603 2595.84
Loop time of 3.0498 on 1 procs for 1000000 steps with 16 atoms
